
New XYCurve.panel_temp_eff npts=4  xarray=[0  25  75  100]  yarray=[1.2 1.0 0.8  0.6] 
New XYCurve.panel_absorb_eff npts=4  xarray=[.1  .2  .4  1.0]  yarray=[.86  .9  .93  .97]  

New Loadshape.assumed_irrad npts=24 interval=1 mult=[0 0 0 0 0 0 .1 .2 .3  .5  .8  .9  1.0  1.0  .99  .9  .7  .4  .1 0  0  0  0  0]
New Tshape.assumed_Temp npts=24 interval=1 temp=[10, 10, 10, 10, 10, 10, 12, 15, 20, 25, 30, 30  32 32  30 28  27  26  25 20 18 15 13 12]



